@<TRIPOS>MOLECULE
ETH
   15    14     1     0     0
SMALL
bcc


@<TRIPOS>ATOM
      1 C1           0.9950    -2.0490     0.0000 c3         1 ETH      -0.096100
      2 C2           1.0990    -0.5420     0.0000 c3         1 ETH       0.130400
      3 O1          -0.2330    -0.0340     0.0000 os         1 ETH      -0.426600
      4 C3          -0.2680     1.3920     0.0000 c3         1 ETH       0.130400
      5 C4          -1.7240     1.7960    -0.0000 c3         1 ETH      -0.096100
      6 H1           2.0190    -2.4920    -0.0000 hc         1 ETH       0.044700
      7 H2           0.4430    -2.4010     0.9040 hc         1 ETH       0.044700
      8 H3           0.4430    -2.4010    -0.9040 hc         1 ETH       0.044700
      9 H4           1.6400    -0.1730     0.9130 h1         1 ETH       0.022700
     10 H5           1.6400    -0.1730    -0.9130 h1         1 ETH       0.022700
     11 H6           0.2600     1.7790     0.9130 h1         1 ETH       0.022700
     12 H7           0.2600     1.7790    -0.9130 h1         1 ETH       0.022700
     13 H8          -1.8010     2.9090     0.0000 hc         1 ETH       0.044700
     14 H9          -2.2400     1.3930    -0.9040 hc         1 ETH       0.044700
     15 H10         -2.2400     1.3930     0.9040 hc         1 ETH       0.044700
@<TRIPOS>BOND
     1     1     2 1   
     2     1     6 1   
     3     1     7 1   
     4     1     8 1   
     5     2     3 1   
     6     2     9 1   
     7     2    10 1   
     8     3     4 1   
     9     4     5 1   
    10     4    11 1   
    11     4    12 1   
    12     5    13 1   
    13     5    14 1   
    14     5    15 1   
@<TRIPOS>SUBSTRUCTURE
     1 ETH         1 TEMP              0 ****  ****    0 ROOT
